*Heading
** Job name: Job-1 Model name: Job-1
** Generated by: Abaqus/CAE 2017
*Preprint, echo=NO, model=NO, history=NO, contact=NO
**
** PARTS
**
*Part, name=PART-1
*Node
      1,           0.,           0.
      2,        11.25,           0.
      3,         22.5,           0.
      4,        33.75,           0.
      5,          45.,           0.
      6,           0.,          15.
      7,        11.25,          15.
      8,         22.5,          15.
      9,        33.75,          15.
     10,          45.,          15.
     11,           0.,          30.
     12,        11.25,          30.
     13,         22.5,          30.
     14,        33.75,          30.
     15,          45.,          30.
     16,           0.,          45.
     17,        11.25,          45.
     18,         22.5,          45.
     19,        33.75,          45.
     20,          45.,          45.
** ... 5 like lines cut
*Element, type=CAX4R
 1,  1,  2,  7,  6
 2,  2,  3,  8,  7
 3,  3,  4,  9,  8
 4,  4,  5, 10,  9
 5,  6,  7, 12, 11
 6,  7,  8, 13, 12
 7,  8,  9, 14, 13
 8,  9, 10, 15, 14
 9, 11, 12, 17, 16
10, 12, 13, 18, 17
11, 13, 14, 19, 18
12, 14, 15, 20, 19
13, 16, 17, 22, 21
14, 17, 18, 23, 22
15, 18, 19, 24, 23
16, 19, 20, 25, 24
*Nset, nset=_PICKEDSET2, internal, generate
  1,  25,   1
*Elset, elset=_PICKEDSET2, internal, generate
  1,  16,   1
** Section: Section-1-_PICKEDSET2
*Solid Section, elset=_PICKEDSET2, material=MATERIAL-1
,
*End Part
**  
*Part, name=PART-2-1
*End Part
**  
*Part, name=PUN-1
*End Part
**  
**
** ASSEMBLY
**
*Assembly, name=Assembly
**  
*Instance, name=PART-1-1, part=PART-1
*End Instance
**  
*Instance, name=PART-2-1, part=PART-2-1
*Node
      1,          60.,           0.
*Nset, nset=PART-2-1-RefPt_, internal
 1,
*Nset, nset=PART-2-1-REFPT_, internal
 1,
*Surface, type=SEGMENTS, name=PART-2-1-RIGIDSURFACE_, internal
START,           0.,           0.
 LINE,          60.,           0.
*End Instance
**  
*Instance, name=PUN-1, part=PUN-1
*Node
      1,          60.,          60.
*Nset, nset=PUN-1-RefPt_, internal
 1,
*Nset, nset=PUN-1-REFPT_, internal
 1,
*Surface, type=SEGMENTS, name=PUN-1-RIGIDSURFACE_, internal
START,          60.,          60.
 LINE,           0.,          60.
*End Instance
**  
*Nset, nset=_PICKEDSET12, internal, instance=PART-1-1, generate
  1,  21,   5
*Elset, elset=_PICKEDSET12, internal, instance=PART-1-1, generate
  1,  13,   4
*Nset, nset=_PICKEDSET13, internal, instance=PART-2-1
 1,
*Nset, nset=_PICKEDSET14, internal, instance=PUN-1
 1,
*Elset, elset=__PICKEDSURF9_S3, internal, instance=PART-1-1, generate
 13,  16,   1
*Elset, elset=__PICKEDSURF11_S1, internal, instance=PART-1-1, generate
 1,  4,  1
*Surface, type=ELEMENT, name=_PICKEDSURF9, internal
__PICKEDSURF9_S3, S3
*Surface, type=ELEMENT, name=_PICKEDSURF11, internal
__PICKEDSURF11_S1, S1
** Constraint: RigidBody-1
*Rigid Body, ref node=PART-2-1.PART-2-1-REFPT_, analytical surface=PART-2-1.PART-2-1-RIGIDSURFACE_
** Constraint: RigidBody-2
*Rigid Body, ref node=PUN-1.PUN-1-REFPT_, analytical surface=PUN-1.PUN-1-RIGIDSURFACE_
*End Assembly
** 
** MATERIALS
** 
*Material, name=MATERIAL-1
*Elastic
199950., 0.29
*Plastic
    260.,   0.
 299.968, 0.01
 327.238, 0.02
 348.422, 0.03
  365.95, 0.04
 381.009, 0.05
 394.275, 0.06
 406.173, 0.07
  416.99, 0.08
 426.926, 0.09
 436.131,  0.1
 444.717, 0.11
 452.773, 0.12
 460.367, 0.13
 467.557, 0.14
 474.389, 0.15
 480.901, 0.16
 487.125, 0.17
 493.089, 0.18
 498.817, 0.19
** ... 81 like lines cut
** 
** INTERACTION PROPERTIES
** 
*Surface Interaction, name=INTPROP-1
1.,
*Friction, slip tolerance=0.005
 0.05,
*Surface Behavior, pressure-overclosure=HARD
** 
** BOUNDARY CONDITIONS
** 
** Name: Disp-BC-1 Type: Symmetry/Antisymmetry/Encastre
*Boundary
_PICKEDSET12, XSYMM
** Name: Disp-BC-2 Type: Symmetry/Antisymmetry/Encastre
*Boundary
_PICKEDSET13, ENCASTRE
** 
** INTERACTIONS
** 
** Interaction: INTPROP-1-1
*Contact Pair, interaction=INTPROP-1, type=SURFACE TO SURFACE
_PICKEDSURF9, PUN-1.PUN-1-RIGIDSURFACE_
** Interaction: INTPROP-1-2
*Contact Pair, interaction=INTPROP-1, type=SURFACE TO SURFACE
_PICKEDSURF11, PART-2-1.PART-2-1-RIGIDSURFACE_
** ----------------------------------------------------------------
** 
** STEP: Step-1
** 
*Step, name=Step-1, nlgeom=YES, inc=1000000
*Static
1e-09, 1., 1e-15, 1.
** 
** BOUNDARY CONDITIONS
** 
** Name: Disp-BC-3 Type: Displacement/Rotation
*Boundary
_PICKEDSET14, 1, 1
** Name: Disp-BC-4 Type: Displacement/Rotation
*Boundary
_PICKEDSET14, 2, 2, -10.
** Name: Disp-BC-5 Type: Displacement/Rotation
*Boundary
_PICKEDSET14, 6, 6
** 
** OUTPUT REQUESTS
** 
*Restart, write, frequency=0
** 
** FIELD OUTPUT: F-Output-1
** 
*Output, field, variable=PRESELECT
** 
** HISTORY OUTPUT: H-Output-1
** 
*Output, history, variable=PRESELECT
*End Step
